
**** 03/26/25 23:16:08 *** PSpice 24.1.0 (26 February 2025) *** ID# 0 ********

 ** Profile: "SCHEMATIC1-Case 1"  [ c:\users\administrator\appdata\roaming\spb_data\cdssetup\workspace\projects\lightml\lightml-pspic


 ****     CIRCUIT DESCRIPTION


******************************************************************************




** Creating circuit file "Case 1.cir" 
** WARNING: THIS AUTOMATICALLY GENERATED FILE MAY BE OVERWRITTEN BY SUBSEQUENT SIMULATIONS

*Libraries: 
* Profile Libraries :
* Local Libraries :
* From [PSPICE NETLIST] section of C:\Users\Administrator\AppData\Roaming\SPB_Data\cdssetup\OrCAD_PSpice\24.1.0\PSpice.ini file:
.lib "nom.lib" 

*Analysis directives: 
.TRAN  0 200ns 0 
.OPTIONS ADVCONV
.PROBE64 V(alias(*)) I(alias(*)) W(alias(*)) D(alias(*)) NOISE(alias(*)) 
.INC "..\SCHEMATIC1.net" 



**** INCLUDING SCHEMATIC1.net ****
* source LIGHTML
I_I5         0 N58193  DC 0Adc AC 0Aac
+PULSE 200n 700n+200n  0 0.01n 0.01n 0.1n 100n
C_C3         0 N58193  15f  TC=0,0 
V_Vref3         N59845 0 0.5
V_V15         N59505 0  
+PULSE 1 0 100n 0.01n 0.01n 200n 200n
X_U2         N59641 N59845 0 N60884 N59717 N59737 
+ N59649 N59653 N59685 N59705 N59721 N59733 N59741 N59761 $G_DPWR $G_DGND
+  ADC8break 
+ PARAMS: MNTYMXDLY=0 IO_LEVEL=0
C_C2         0 N59641  20f  TC=0,0 
X_S2    N59505 0 N59585 N59641 SCHEMATIC1_S2 
R_R5         0 N59641  50000k TC=0,0 
V_V16         N60586 0  
+PULSE 0 1 5n 0.01n 0.01n 1u 2u
R_R6         0 N60586  500k TC=0,0 
V_V17         N60884 0  
+PULSE 0 1 5n 0.01n 0.01n 1u 2u
I_I6         N59585 0 DC 0Adc AC 0Aac
+PULSE 100nA 200nA 0 0 0 0.1ns 0.1ns
I_I7         0 N59585 DC 0Adc AC 0Aac
+PULSE 200nA 300nA 0 0 0 0.1ns 0.2ns

.subckt SCHEMATIC1_S2 1 2 3 4  
S_S2         3 4 1 2 Sbreak
RS_S2         1 2 1G
.ends SCHEMATIC1_S2

**** RESUMING "Case 1.cir" ****
.END


**** Generated AtoD and DtoA Interfaces ****

*
* Analog/Digital interface for node N60884
*
* Moving X_U2.U1:CONVERT from analog node N60884 to new digital node N60884$AtoD
X$N60884_AtoD1
+ N60884
+ N60884$AtoD
+ $G_DPWR
+ $G_DGND
+ AtoD_STD
+       PARAMS: CAPACITANCE=   0     
*
* Analog/Digital interface power supply subcircuits
*
X$DIGIFPWR 0 DIGIFPWR


ERROR(ORPSIM-15142): Node N58193 is floating
